testing_opendss/psu_13_node_feeder_7_PropertyDump.Txt

New Transformer.sub
! ENABLED
! NPhases = 3
! Nconds = 4
! Nterms = 2
! Yorder = 8
! NodeRef = "1 2 3 0 4 5 6 0 "
! Terminal Status: [C C C C C C C C ]
! Terminal Bus Ref: [1 1 1 1 2 2 2 2 ]

! YPrim (G matrix)
!    77.55319665 |  -38.77659832 |  -38.77659832 |             0 |  -1856.670534 |   1856.670534 |             0 |             0 |
!   -38.77659832 |   77.55319665 |  -38.77659832 |             0 |             0 |  -1856.670534 |   1856.670534 |             0 |
!   -38.77659832 |  -38.77659832 |   77.55319665 |             0 |   1856.670534 |             0 |  -1856.670534 |             0 |
!              0 |             0 |             0 |             0 |             0 |             0 |             0 |             0 |
!   -1856.670534 |             0 |   1856.670534 |             0 |   88899.63587 |             0 |             0 |  -88899.63587 |
!    1856.670534 |  -1856.670534 |             0 |             0 |             0 |   88899.63587 |             0 |  -88899.63587 |
!              0 |   1856.670534 |  -1856.670534 |             0 |             0 |             0 |   88899.63587 |  -88899.63587 |
!              0 |             0 |             0 |             0 |  -88899.63587 |  -88899.63587 |  -88899.63587 |   266698.9076 |
! YPrim (B Matrix) = 
!   -620.4255732 |   310.2127866 |   310.2127866 |             0 |   14853.36427 |  -14853.36427 |             0 |             0 |
!    310.2127866 |  -620.4255732 |   310.2127866 |             0 |             0 |   14853.36427 |  -14853.36427 |             0 |
!    310.2127866 |   310.2127866 |  -620.4255732 |             0 |  -14853.36427 |             0 |   14853.36427 |             0 |
!              0 |             0 |             0 |             0 |             0 |             0 |             0 |             0 |
!    14853.36427 |             0 |  -14853.36427 |             0 |   -711197.087 |             0 |             0 |   711197.0869 |
!   -14853.36427 |   14853.36427 |             0 |             0 |             0 |   -711197.087 |             0 |   711197.0869 |
!              0 |  -14853.36427 |   14853.36427 |             0 |             0 |             0 |   -711197.087 |   711197.0869 |
!              0 |             0 |             0 |             0 |   711197.0869 |   711197.0869 |   711197.0869 |  -2133591.261 |
~ NumWindings=2
~ phases=3
~ Wdg=1 bus=sourcebus
~ conn=delta
~ kv=115.00
~ kVA=1000000.0
~ tap=1.000
~ %R=0.00
~ RdcOhms=5.620625E-005
~ rneut=-1.000
~ xneut=0.000
~ Wdg=2 bus=n650
~ conn=wye
~ kv=4.16
~ kVA=1000000.0
~ tap=1.000
~ %R=0.00
~ RdcOhms=2.451627E-008
~ rneut=-1.000
~ xneut=0.000
~ XHL=0.008
~ XHT=35.000
~ XLT=30.000
~ X12=0.008
~ X13=35.000
~ X23=30.000
~ Xscmatrix= "0.01 "
~ NormMAxHkVA=1100000
~ EmergMAxHkVA=1500000
~ thermal=2.0
~ n=0.8
~ m=0.8
~ flrise=65
~ hsrise=15
~ %loadloss=0
~ %noloadloss=0
~ normhkVA=1100000
~ emerghkVA=1500000
~ sub=n
~ MaxTap=1.1
~ MinTap=0.9
~ NumTaps=32
~ subname=
~ %imag=0
~ ppm_antifloat=1
~ %Rs=[0.0005, 0.0005, ]
~ bank=
~ XfmrCode=SubXfmr
~ XRConst=NO
~ X12=0.008
~ X13=35
~ X23=30
~ LeadLag=Lag
~ WdgCurrents=0.00443598, (-84.588), 0.1073632, (90.001), 0.004156217, (155.78), 0.09390376, (-30), 0.004713139, (35.093), 0.1206898, (-150), 
~ Core=shell
~ RdcOhms=2.451627E-008
~ Seasons=1
~ Ratings=[600,]
~ normamps=5522.5
~ emergamps=7530.7
~ faultrate=0.007
~ pctperm=100
~ repair=36
~ basefreq=60
~ enabled=true
~ like=

ZB:
3E-014 
2.4E-013 

ZB: (inverted)
512820512820.5128 
-4102564102564.1024 

Y_OneVolt
512820512820.5128 
-512820512820.5128 512820512820.5128 
-4102564102564.1024 
4102564102564.1024 -4102564102564.1024 

Y_Terminal
38.7766 
-38.7766 38.7766 
-1856.6705 1856.6705 88899.6359 
1856.6705 -1856.6705 -88899.6359 88899.6359 
-310.2128 
310.2128 -310.2128 
14853.3643 -14853.3643 -711197.0870 
-14853.3643 14853.3643 711197.0869 -711197.0870 

TermRef= 1 3 5 8 2 1 6 8 3 2 7 8 

New Transformer.trans_n650-n630
! ENABLED
! NPhases = 3
! Nconds = 4
! Nterms = 2
! Yorder = 8
! NodeRef = "4 5 6 0 7 8 9 0 "
! Terminal Status: [C C C C C C C C ]
! Terminal Bus Ref: [2 2 2 2 3 3 3 3 ]

! YPrim (G matrix)
!  0.04701770815 |             0 |             0 | -0.04701770815 | -0.08149736079 |             0 |             0 | 0.08149736079 |
!              0 | 0.04701770815 |             0 | -0.04701770815 |             0 | -0.08149736079 |             0 | 0.08149736079 |
!              0 |             0 | 0.04701770815 | -0.04701770815 |             0 |             0 | -0.08149736079 | 0.08149736079 |
!  -0.04701770815 | -0.04701770815 | -0.04701770815 |  0.1410531244 | 0.08149736079 | 0.08149736079 | 0.08149736079 | -0.2444920824 |
!  -0.08149736079 |             0 |             0 | 0.08149736079 |   0.141262092 |             0 |             0 |  -0.141262092 |
!              0 | -0.08149736079 |             0 | 0.08149736079 |             0 |   0.141262092 |             0 |  -0.141262092 |
!              0 |             0 | -0.08149736079 | 0.08149736079 |             0 |             0 |   0.141262092 |  -0.141262092 |
!  0.08149736079 | 0.08149736079 | 0.08149736079 | -0.2444920824 |  -0.141262092 |  -0.141262092 |  -0.141262092 |  0.4237862761 |
! YPrim (B Matrix) = 
!  -0.8228099215 |             0 |             0 |  0.8228098926 |   1.426203814 |             0 |             0 |  -1.426203814 |
!              0 | -0.8228099215 |             0 |  0.8228098926 |             0 |   1.426203814 |             0 |  -1.426203814 |
!              0 |             0 | -0.8228099215 |  0.8228098926 |             0 |             0 |   1.426203814 |  -1.426203814 |
!   0.8228098926 |  0.8228098926 |  0.8228098926 |  -2.468429793 |  -1.426203814 |  -1.426203814 |  -1.426203814 |   4.278611441 |
!    1.426203814 |             0 |             0 |  -1.426203814 |  -2.472086697 |             0 |             0 |   2.472086611 |
!              0 |   1.426203814 |             0 |  -1.426203814 |             0 |  -2.472086697 |             0 |   2.472086611 |
!              0 |             0 |   1.426203814 |  -1.426203814 |             0 |             0 |  -2.472086697 |   2.472086611 |
!   -1.426203814 |  -1.426203814 |  -1.426203814 |   4.278611441 |   2.472086611 |   2.472086611 |   2.472086611 |  -7.416260179 |
~ NumWindings=2
~ phases=3
~ Wdg=1 bus=n650
~ conn=wye
~ kv=4.16
~ kVA=1000.0
~ tap=1.000
~ %R=0.20
~ RdcOhms=0.009806507
~ rneut=-1.000
~ xneut=0.000
~ Wdg=2 bus=n630
~ conn=wye
~ kv=2.40
~ kVA=1000.0
~ tap=1.000
~ %R=0.20
~ RdcOhms=0.003264
~ rneut=-1.000
~ xneut=0.000
~ XHL=7.000
~ XHT=35.000
~ XLT=30.000
~ X12=7.000
~ X13=35.000
~ X23=30.000
~ Xscmatrix= "7.00 "
~ NormMAxHkVA=1100
~ EmergMAxHkVA=1500
~ thermal=2.0
~ n=0.8
~ m=0.8
~ flrise=65
~ hsrise=15
~ %loadloss=0
~ %noloadloss=0
~ normhkVA=1100
~ emerghkVA=1500
~ sub=n
~ MaxTap=1.1
~ MinTap=0.9
~ NumTaps=32
~ subname=
~ %imag=0
~ ppm_antifloat=1
~ %Rs=[0.2, 0.2, ]
~ bank=
~ XfmrCode=
~ XRConst=NO
~ X12=7
~ X13=35
~ X23=30
~ LeadLag=Lag
~ WdgCurrents=0.1073637, (-89.999), 0.1858566, (90.001), 0.09390393, (150), 0.1625263, (-30), 0.1206899, (30.001), 0.2089552, (-150), 
~ Core=shell
~ RdcOhms=0.003264
~ Seasons=1
~ Ratings=[1100,]
~ normamps=152.66
~ emergamps=208.18
~ faultrate=0.007
~ pctperm=100
~ repair=36
~ basefreq=60
~ enabled=true
~ like=

ZB:
1.2E-008 
2.1E-007 

ZB: (inverted)
271223.2167 
-4746406.2924 

Y_OneVolt
271223.2167 
-271223.2167 271223.2167 
-4746406.2924 
4746406.2924 -4746406.2924 

Y_Terminal
0.0470 
-0.0470 0.0470 
-0.0815 0.0815 0.1413 
0.0815 -0.0815 -0.1413 0.1413 
-0.8228 
0.8228 -0.8228 
1.4262 -1.4262 -2.4721 
-1.4262 1.4262 2.4721 -2.4721 

TermRef= 1 4 5 8 2 4 6 8 3 4 7 8 

New Transformer.t633-634
! ENABLED
! NPhases = 3
! Nconds = 4
! Nterms = 2
! Yorder = 8
! NodeRef = "10 11 12 0 13 14 15 0 "
! Terminal Status: [C C C C C C C C ]
! Terminal Bus Ref: [4 4 4 4 5 5 5 5 ]

! YPrim (G matrix)
!    366.5493709 |             0 |             0 |  -366.5493709 |  -1832.746854 |             0 |             0 |   1832.746854 |
!              0 |   366.5493709 |             0 |  -366.5493709 |             0 |  -1832.746854 |             0 |   1832.746854 |
!              0 |             0 |   366.5493709 |  -366.5493709 |             0 |             0 |  -1832.746854 |   1832.746854 |
!   -366.5493709 |  -366.5493709 |  -366.5493709 |   1099.648113 |   1832.746854 |   1832.746854 |   1832.746854 |  -5498.240563 |
!   -1832.746854 |             0 |             0 |   1832.746854 |   9163.734272 |             0 |             0 |  -9163.734272 |
!              0 |  -1832.746854 |             0 |   1832.746854 |             0 |   9163.734272 |             0 |  -9163.734272 |
!              0 |             0 |  -1832.746854 |   1832.746854 |             0 |             0 |   9163.734272 |  -9163.734272 |
!    1832.746854 |   1832.746854 |   1832.746854 |  -5498.240563 |  -9163.734272 |  -9163.734272 |  -9163.734272 |   27491.20282 |
! YPrim (B Matrix) = 
!   -666.4534017 |             0 |             0 |   666.4534016 |   3332.267008 |             0 |             0 |  -3332.267008 |
!              0 |  -666.4534017 |             0 |   666.4534016 |             0 |   3332.267008 |             0 |  -3332.267008 |
!              0 |             0 |  -666.4534017 |   666.4534016 |             0 |             0 |   3332.267008 |  -3332.267008 |
!    666.4534016 |   666.4534016 |   666.4534016 |  -1999.360205 |  -3332.267008 |  -3332.267008 |  -3332.267008 |   9996.801024 |
!    3332.267008 |             0 |             0 |  -3332.267008 |  -16661.33504 |             0 |             0 |   16661.33504 |
!              0 |   3332.267008 |             0 |  -3332.267008 |             0 |  -16661.33504 |             0 |   16661.33504 |
!              0 |             0 |   3332.267008 |  -3332.267008 |             0 |             0 |  -16661.33504 |   16661.33504 |
!   -3332.267008 |  -3332.267008 |  -3332.267008 |   9996.801024 |   16661.33504 |   16661.33504 |   16661.33504 |  -49984.00513 |
~ NumWindings=2
~ phases=3
~ Wdg=1 bus=n633
~ conn=wye
~ kv=2.40
~ kVA=1000.0
~ tap=1.000
~ %R=0.01
~ RdcOhms=8.976E-005
~ rneut=-1.000
~ xneut=0.000
~ Wdg=2 bus=n634
~ conn=wye
~ kv=0.48
~ kVA=1000.0
~ tap=1.000
~ %R=0.01
~ RdcOhms=3.5904E-006
~ rneut=-1.000
~ xneut=0.000
~ XHL=0.020
~ XHT=35.000
~ XLT=30.000
~ X12=0.020
~ X13=35.000
~ X23=30.000
~ Xscmatrix= "0.02 "
~ NormMAxHkVA=11000
~ EmergMAxHkVA=15000
~ thermal=2.0
~ n=0.8
~ m=0.8
~ flrise=65
~ hsrise=15
~ %loadloss=0
~ %noloadloss=0
~ normhkVA=11000
~ emerghkVA=15000
~ sub=n
~ MaxTap=1.1
~ MinTap=0.9
~ NumTaps=32
~ subname=
~ %imag=0
~ ppm_antifloat=1
~ %Rs=[0.0055, 0.0055, ]
~ bank=
~ XfmrCode=
~ XRConst=NO
~ X12=0.02
~ X13=35
~ X23=30
~ LeadLag=Lag
~ WdgCurrents=0.000240547, (-90), 1.04125E-009, (-116.57), 0.0002405497, (150), 0, (0), 0.0002405448, (30.001), 2.082501E-009, (-63.435), 
~ Core=shell
~ RdcOhms=3.5904E-006
~ Seasons=1
~ Ratings=[1100,]
~ normamps=2646.2
~ emergamps=3608.4
~ faultrate=0.007
~ pctperm=100
~ repair=36
~ basefreq=60
~ enabled=true
~ like=

ZB:
3.3E-010 
6E-010 

ZB: (inverted)
703774792.0665 
-1279590531.0301 

Y_OneVolt
703774792.0665 
-703774792.0665 703774792.0665 
-1279590531.0301 
1279590531.0301 -1279590531.0301 

Y_Terminal
366.5494 
-366.5494 366.5494 
-1832.7469 1832.7469 9163.7343 
1832.7469 -1832.7469 -9163.7343 9163.7343 
-666.4534 
666.4534 -666.4534 
3332.2670 -3332.2670 -16661.3350 
-3332.2670 3332.2670 16661.3350 -16661.3350 

TermRef= 1 4 5 8 2 4 6 8 3 4 7 8 

New Transformer.xfmr_652_a_1
! ENABLED
! NPhases = 1
! Nconds = 2
! Nterms = 3
! Yorder = 6
! NodeRef = "16 0 17 0 0 18 "
! Terminal Status: [C C C C C C ]
! Terminal Bus Ref: [6 6 7 7 7 7 ]

! YPrim (G matrix)
!   0.3604338031 | -0.3604338031 |  -3.604338031 |   3.604338031 |  -3.604338031 |   3.604338031 |
!  -0.3604338031 |  0.3604338031 |   3.604338031 |  -3.604338031 |   3.604338031 |  -3.604338031 |
!   -3.604338031 |   3.604338031 |    486.556172 |   -486.556172 |  -414.4694114 |   414.4694114 |
!    3.604338031 |  -3.604338031 |   -486.556172 |    486.556172 |   414.4694114 |  -414.4694114 |
!   -3.604338031 |   3.604338031 |  -414.4694114 |   414.4694114 |    486.556172 |   -486.556172 |
!    3.604338031 |  -3.604338031 |   414.4694114 |  -414.4694114 |   -486.556172 |    486.556172 |
! YPrim (B Matrix) = 
!   -102.1229118 |   102.1229109 |   1021.229109 |  -1021.229109 |   1021.229109 |  -1021.229109 |
!    102.1229109 |  -102.1229126 |  -1021.229109 |   1021.229109 |  -1021.229109 |   1021.229109 |
!    1021.229109 |  -1021.229109 |  -61270.40783 |   61270.40748 |    40845.8253 |   -40845.8253 |
!   -1021.229109 |   1021.229109 |   61270.40748 |  -61270.40817 |   -40845.8253 |    40845.8253 |
!    1021.229109 |  -1021.229109 |    40845.8253 |   -40845.8253 |  -61270.40783 |   61270.40748 |
!   -1021.229109 |   1021.229109 |   -40845.8253 |    40845.8253 |   61270.40748 |  -61270.40817 |
~ NumWindings=3
~ phases=1
~ Wdg=1 bus=xfmr_meter_652_a_1.1
~ conn=wye
~ kv=2.40
~ kVA=10000.0
~ tap=1.000
~ %R=0.00
~ RdcOhms=1.4688E-005
~ rneut=-1.000
~ xneut=0.000
~ Wdg=2 bus=trip_node_652_a_1.1.0
~ conn=wye
~ kv=0.12
~ kVA=1000.0
~ tap=1.000
~ %R=0.01
~ RdcOhms=7.344E-008
~ rneut=-1.000
~ xneut=0.000
~ Wdg=3 bus=trip_node_652_a_1.0.2
~ conn=wye
~ kv=0.12
~ kVA=1000.0
~ tap=1.000
~ %R=0.01
~ RdcOhms=7.344E-008
~ rneut=-1.000
~ xneut=0.000
~ XHL=2.040
~ XHT=2.040
~ XLT=1.360
~ X12=2.040
~ X13=2.040
~ X23=1.360
~ Xscmatrix= "2.04 2.04 1.36 "
~ NormMAxHkVA=11000
~ EmergMAxHkVA=15000
~ thermal=2.0
~ n=0.8
~ m=0.8
~ flrise=65
~ hsrise=15
~ %loadloss=0
~ %noloadloss=0
~ normhkVA=11000
~ emerghkVA=15000
~ sub=n
~ MaxTap=1.1
~ MinTap=0.9
~ NumTaps=32
~ subname=
~ %imag=0
~ ppm_antifloat=1
~ %Rs=[0.003, 0.006, 0.006, ]
~ bank=
~ XfmrCode=
~ XRConst=NO
~ X12=2.04
~ X13=2.04
~ X23=1.36
~ LeadLag=Lag
~ WdgCurrents=0.004806235, (-89.999), 4.655449E-005, (-90.023), 0.04806234, (90.001), 
~ Core=shell
~ RdcOhms=7.344E-008
~ Seasons=1
~ Ratings=[1100,]
~ normamps=4583.3
~ emergamps=6250
~ faultrate=0.007
~ pctperm=100
~ repair=36
~ basefreq=60
~ enabled=true
~ like=

ZB:
9.00000000000001E-012 
3E-012 9E-012 
2.04E-009 
1.36E-009 2.04E-009 

ZB: (inverted)
7006408.8767 
-5968359.5237 7006408.8767 
-882293867.6994 
588179884.3442 -882293867.6994 

Y_OneVolt
2076098.7060 
-1038049.3530 7006408.8767 
-1038049.3530 -5968359.5237 7006408.8767 
-588227966.7104 
294113983.3552 -882293867.6994 
294113983.3552 588179884.3442 -882293867.6994 

Y_Terminal
0.3604 
-0.3604 0.3604 
-3.6043 3.6043 486.5562 
3.6043 -3.6043 -486.5562 486.5562 
-3.6043 3.6043 -414.4694 414.4694 486.5562 
3.6043 -3.6043 414.4694 -414.4694 -486.5562 486.5562 
-102.1229 
102.1229 -102.1229 
1021.2291 -1021.2291 -61270.4078 
-1021.2291 1021.2291 61270.4075 -61270.4078 
1021.2291 -1021.2291 40845.8253 -40845.8253 -61270.4078 
-1021.2291 1021.2291 -40845.8253 40845.8253 61270.4075 -61270.4078 

TermRef= 1 2 3 4 5 6 

New Transformer.xfmr_652_a_2
! ENABLED
! NPhases = 1
! Nconds = 2
! Nterms = 3
! Yorder = 6
! NodeRef = "19 0 20 0 0 21 "
! Terminal Status: [C C C C C C ]
! Terminal Bus Ref: [8 8 9 9 9 9 ]

! YPrim (G matrix)
!   0.3604338031 | -0.3604338031 |  -3.604338031 |   3.604338031 |  -3.604338031 |   3.604338031 |
!  -0.3604338031 |  0.3604338031 |   3.604338031 |  -3.604338031 |   3.604338031 |  -3.604338031 |
!   -3.604338031 |   3.604338031 |    486.556172 |   -486.556172 |  -414.4694114 |   414.4694114 |
!    3.604338031 |  -3.604338031 |   -486.556172 |    486.556172 |   414.4694114 |  -414.4694114 |
!   -3.604338031 |   3.604338031 |  -414.4694114 |   414.4694114 |    486.556172 |   -486.556172 |
!    3.604338031 |  -3.604338031 |   414.4694114 |  -414.4694114 |   -486.556172 |    486.556172 |
! YPrim (B Matrix) = 
!   -102.1229118 |   102.1229109 |   1021.229109 |  -1021.229109 |   1021.229109 |  -1021.229109 |
!    102.1229109 |  -102.1229126 |  -1021.229109 |   1021.229109 |  -1021.229109 |   1021.229109 |
!    1021.229109 |  -1021.229109 |  -61270.40783 |   61270.40748 |    40845.8253 |   -40845.8253 |
!   -1021.229109 |   1021.229109 |   61270.40748 |  -61270.40817 |   -40845.8253 |    40845.8253 |
!    1021.229109 |  -1021.229109 |    40845.8253 |   -40845.8253 |  -61270.40783 |   61270.40748 |
!   -1021.229109 |   1021.229109 |   -40845.8253 |    40845.8253 |   61270.40748 |  -61270.40817 |
~ NumWindings=3
~ phases=1
~ Wdg=1 bus=xfmr_meter_652_a_2.1
~ conn=wye
~ kv=2.40
~ kVA=10000.0
~ tap=1.000
~ %R=0.00
~ RdcOhms=1.4688E-005
~ rneut=-1.000
~ xneut=0.000
~ Wdg=2 bus=trip_node_652_a_2.1.0
~ conn=wye
~ kv=0.12
~ kVA=1000.0
~ tap=1.000
~ %R=0.01
~ RdcOhms=7.344E-008
~ rneut=-1.000
~ xneut=0.000
~ Wdg=3 bus=trip_node_652_a_2.0.2
~ conn=wye
~ kv=0.12
~ kVA=1000.0
~ tap=1.000
~ %R=0.01
~ RdcOhms=7.344E-008
~ rneut=-1.000
~ xneut=0.000
~ XHL=2.040
~ XHT=2.040
~ XLT=1.360
~ X12=2.040
~ X13=2.040
~ X23=1.360
~ Xscmatrix= "2.04 2.04 1.36 "
~ NormMAxHkVA=11000
~ EmergMAxHkVA=15000
~ thermal=2.0
~ n=0.8
~ m=0.8
~ flrise=65
~ hsrise=15
~ %loadloss=0
~ %noloadloss=0
~ normhkVA=11000
~ emerghkVA=15000
~ sub=n
~ MaxTap=1.1
~ MinTap=0.9
~ NumTaps=32
~ subname=
~ %imag=0
~ ppm_antifloat=1
~ %Rs=[0.003, 0.006, 0.006, ]
~ bank=
~ XfmrCode=
~ XRConst=NO
~ X12=2.04
~ X13=2.04
~ X23=1.36
~ LeadLag=Lag
~ WdgCurrents=0.004806235, (-89.999), 4.655449E-005, (-90.023), 0.04806234, (90.001), 
~ Core=shell
~ RdcOhms=7.344E-008
~ Seasons=1
~ Ratings=[1100,]
~ normamps=4583.3
~ emergamps=6250
~ faultrate=0.007
~ pctperm=100
~ repair=36
~ basefreq=60
~ enabled=true
~ like=

ZB:
9.00000000000001E-012 
3E-012 9E-012 
2.04E-009 
1.36E-009 2.04E-009 

ZB: (inverted)
7006408.8767 
-5968359.5237 7006408.8767 
-882293867.6994 
588179884.3442 -882293867.6994 

Y_OneVolt
2076098.7060 
-1038049.3530 7006408.8767 
-1038049.3530 -5968359.5237 7006408.8767 
-588227966.7104 
294113983.3552 -882293867.6994 
294113983.3552 588179884.3442 -882293867.6994 

Y_Terminal
0.3604 
-0.3604 0.3604 
-3.6043 3.6043 486.5562 
3.6043 -3.6043 -486.5562 486.5562 
-3.6043 3.6043 -414.4694 414.4694 486.5562 
3.6043 -3.6043 414.4694 -414.4694 -486.5562 486.5562 
-102.1229 
102.1229 -102.1229 
1021.2291 -1021.2291 -61270.4078 
-1021.2291 1021.2291 61270.4075 -61270.4078 
1021.2291 -1021.2291 40845.8253 -40845.8253 -61270.4078 
-1021.2291 1021.2291 -40845.8253 40845.8253 61270.4075 -61270.4078 

TermRef= 1 2 3 4 5 6 

New Transformer.xfmr_652_a_3
! ENABLED
! NPhases = 1
! Nconds = 2
! Nterms = 3
! Yorder = 6
! NodeRef = "22 0 23 0 0 24 "
! Terminal Status: [C C C C C C ]
! Terminal Bus Ref: [10 10 11 11 11 11 ]

! YPrim (G matrix)
!   0.3604338031 | -0.3604338031 |  -3.604338031 |   3.604338031 |  -3.604338031 |   3.604338031 |
!  -0.3604338031 |  0.3604338031 |   3.604338031 |  -3.604338031 |   3.604338031 |  -3.604338031 |
!   -3.604338031 |   3.604338031 |    486.556172 |   -486.556172 |  -414.4694114 |   414.4694114 |
!    3.604338031 |  -3.604338031 |   -486.556172 |    486.556172 |   414.4694114 |  -414.4694114 |
!   -3.604338031 |   3.604338031 |  -414.4694114 |   414.4694114 |    486.556172 |   -486.556172 |
!    3.604338031 |  -3.604338031 |   414.4694114 |  -414.4694114 |   -486.556172 |    486.556172 |
! YPrim (B Matrix) = 
!   -102.1229118 |   102.1229109 |   1021.229109 |  -1021.229109 |   1021.229109 |  -1021.229109 |
!    102.1229109 |  -102.1229126 |  -1021.229109 |   1021.229109 |  -1021.229109 |   1021.229109 |
!    1021.229109 |  -1021.229109 |  -61270.40783 |   61270.40748 |    40845.8253 |   -40845.8253 |
!   -1021.229109 |   1021.229109 |   61270.40748 |  -61270.40817 |   -40845.8253 |    40845.8253 |
!    1021.229109 |  -1021.229109 |    40845.8253 |   -40845.8253 |  -61270.40783 |   61270.40748 |
!   -1021.229109 |   1021.229109 |   -40845.8253 |    40845.8253 |   61270.40748 |  -61270.40817 |
~ NumWindings=3
~ phases=1
~ Wdg=1 bus=xfmr_meter_652_a_3.1
~ conn=wye
~ kv=2.40
~ kVA=10000.0
~ tap=1.000
~ %R=0.00
~ RdcOhms=1.4688E-005
~ rneut=-1.000
~ xneut=0.000
~ Wdg=2 bus=trip_node_652_a_3.1.0
~ conn=wye
~ kv=0.12
~ kVA=1000.0
~ tap=1.000
~ %R=0.01
~ RdcOhms=7.344E-008
~ rneut=-1.000
~ xneut=0.000
~ Wdg=3 bus=trip_node_652_a_3.0.2
~ conn=wye
~ kv=0.12
~ kVA=1000.0
~ tap=1.000
~ %R=0.01
~ RdcOhms=7.344E-008
~ rneut=-1.000
~ xneut=0.000
~ XHL=2.040
~ XHT=2.040
~ XLT=1.360
~ X12=2.040
~ X13=2.040
~ X23=1.360
~ Xscmatrix= "2.04 2.04 1.36 "
~ NormMAxHkVA=11000
~ EmergMAxHkVA=15000
~ thermal=2.0
~ n=0.8
~ m=0.8
~ flrise=65
~ hsrise=15
~ %loadloss=0
~ %noloadloss=0
~ normhkVA=11000
~ emerghkVA=15000
~ sub=n
~ MaxTap=1.1
~ MinTap=0.9
~ NumTaps=32
~ subname=
~ %imag=0
~ ppm_antifloat=1
~ %Rs=[0.003, 0.006, 0.006, ]
~ bank=
~ XfmrCode=
~ XRConst=NO
~ X12=2.04
~ X13=2.04
~ X23=1.36
~ LeadLag=Lag
~ WdgCurrents=0.004806235, (-89.999), 4.655449E-005, (-90.023), 0.04806234, (90.001), 
~ Core=shell
~ RdcOhms=7.344E-008
~ Seasons=1
~ Ratings=[1100,]
~ normamps=4583.3
~ emergamps=6250
~ faultrate=0.007
~ pctperm=100
~ repair=36
~ basefreq=60
~ enabled=true
~ like=

ZB:
9.00000000000001E-012 
3E-012 9E-012 
2.04E-009 
1.36E-009 2.04E-009 

ZB: (inverted)
7006408.8767 
-5968359.5237 7006408.8767 
-882293867.6994 
588179884.3442 -882293867.6994 

Y_OneVolt
2076098.7060 
-1038049.3530 7006408.8767 
-1038049.3530 -5968359.5237 7006408.8767 
-588227966.7104 
294113983.3552 -882293867.6994 
294113983.3552 588179884.3442 -882293867.6994 

Y_Terminal
0.3604 
-0.3604 0.3604 
-3.6043 3.6043 486.5562 
3.6043 -3.6043 -486.5562 486.5562 
-3.6043 3.6043 -414.4694 414.4694 486.5562 
3.6043 -3.6043 414.4694 -414.4694 -486.5562 486.5562 
-102.1229 
102.1229 -102.1229 
1021.2291 -1021.2291 -61270.4078 
-1021.2291 1021.2291 61270.4075 -61270.4078 
1021.2291 -1021.2291 40845.8253 -40845.8253 -61270.4078 
-1021.2291 1021.2291 -40845.8253 40845.8253 61270.4075 -61270.4078 

TermRef= 1 2 3 4 5 6 

New Transformer.xfmr_652_a_4
! ENABLED
! NPhases = 1
! Nconds = 2
! Nterms = 3
! Yorder = 6
! NodeRef = "25 0 26 0 0 27 "
! Terminal Status: [C C C C C C ]
! Terminal Bus Ref: [12 12 13 13 13 13 ]

! YPrim (G matrix)
!   0.3604338031 | -0.3604338031 |  -3.604338031 |   3.604338031 |  -3.604338031 |   3.604338031 |
!  -0.3604338031 |  0.3604338031 |   3.604338031 |  -3.604338031 |   3.604338031 |  -3.604338031 |
!   -3.604338031 |   3.604338031 |    486.556172 |   -486.556172 |  -414.4694114 |   414.4694114 |
!    3.604338031 |  -3.604338031 |   -486.556172 |    486.556172 |   414.4694114 |  -414.4694114 |
!   -3.604338031 |   3.604338031 |  -414.4694114 |   414.4694114 |    486.556172 |   -486.556172 |
!    3.604338031 |  -3.604338031 |   414.4694114 |  -414.4694114 |   -486.556172 |    486.556172 |
! YPrim (B Matrix) = 
!   -102.1229118 |   102.1229109 |   1021.229109 |  -1021.229109 |   1021.229109 |  -1021.229109 |
!    102.1229109 |  -102.1229126 |  -1021.229109 |   1021.229109 |  -1021.229109 |   1021.229109 |
!    1021.229109 |  -1021.229109 |  -61270.40783 |   61270.40748 |    40845.8253 |   -40845.8253 |
!   -1021.229109 |   1021.229109 |   61270.40748 |  -61270.40817 |   -40845.8253 |    40845.8253 |
!    1021.229109 |  -1021.229109 |    40845.8253 |   -40845.8253 |  -61270.40783 |   61270.40748 |
!   -1021.229109 |   1021.229109 |   -40845.8253 |    40845.8253 |   61270.40748 |  -61270.40817 |
~ NumWindings=3
~ phases=1
~ Wdg=1 bus=xfmr_meter_652_a_4.1
~ conn=wye
~ kv=2.40
~ kVA=10000.0
~ tap=1.000
~ %R=0.00
~ RdcOhms=1.4688E-005
~ rneut=-1.000
~ xneut=0.000
~ Wdg=2 bus=trip_node_652_a_4.1.0
~ conn=wye
~ kv=0.12
~ kVA=1000.0
~ tap=1.000
~ %R=0.01
~ RdcOhms=7.344E-008
~ rneut=-1.000
~ xneut=0.000
~ Wdg=3 bus=trip_node_652_a_4.0.2
~ conn=wye
~ kv=0.12
~ kVA=1000.0
~ tap=1.000
~ %R=0.01
~ RdcOhms=7.344E-008
~ rneut=-1.000
~ xneut=0.000
~ XHL=2.040
~ XHT=2.040
~ XLT=1.360
~ X12=2.040
~ X13=2.040
~ X23=1.360
~ Xscmatrix= "2.04 2.04 1.36 "
~ NormMAxHkVA=11000
~ EmergMAxHkVA=15000
~ thermal=2.0
~ n=0.8
~ m=0.8
~ flrise=65
~ hsrise=15
~ %loadloss=0
~ %noloadloss=0
~ normhkVA=11000
~ emerghkVA=15000
~ sub=n
~ MaxTap=1.1
~ MinTap=0.9
~ NumTaps=32
~ subname=
~ %imag=0
~ ppm_antifloat=1
~ %Rs=[0.003, 0.006, 0.006, ]
~ bank=
~ XfmrCode=
~ XRConst=NO
~ X12=2.04
~ X13=2.04
~ X23=1.36
~ LeadLag=Lag
~ WdgCurrents=0.004806235, (-89.999), 4.655449E-005, (-90.023), 0.04806234, (90.001), 
~ Core=shell
~ RdcOhms=7.344E-008
~ Seasons=1
~ Ratings=[1100,]
~ normamps=4583.3
~ emergamps=6250
~ faultrate=0.007
~ pctperm=100
~ repair=36
~ basefreq=60
~ enabled=true
~ like=

ZB:
9.00000000000001E-012 
3E-012 9E-012 
2.04E-009 
1.36E-009 2.04E-009 

ZB: (inverted)
7006408.8767 
-5968359.5237 7006408.8767 
-882293867.6994 
588179884.3442 -882293867.6994 

Y_OneVolt
2076098.7060 
-1038049.3530 7006408.8767 
-1038049.3530 -5968359.5237 7006408.8767 
-588227966.7104 
294113983.3552 -882293867.6994 
294113983.3552 588179884.3442 -882293867.6994 

Y_Terminal
0.3604 
-0.3604 0.3604 
-3.6043 3.6043 486.5562 
3.6043 -3.6043 -486.5562 486.5562 
-3.6043 3.6043 -414.4694 414.4694 486.5562 
3.6043 -3.6043 414.4694 -414.4694 -486.5562 486.5562 
-102.1229 
102.1229 -102.1229 
1021.2291 -1021.2291 -61270.4078 
-1021.2291 1021.2291 61270.4075 -61270.4078 
1021.2291 -1021.2291 40845.8253 -40845.8253 -61270.4078 
-1021.2291 1021.2291 -40845.8253 40845.8253 61270.4075 -61270.4078 

TermRef= 1 2 3 4 5 6 

New Transformer.xfmr_652_a_5
! ENABLED
! NPhases = 1
! Nconds = 2
! Nterms = 3
! Yorder = 6
! NodeRef = "28 0 29 0 0 30 "
! Terminal Status: [C C C C C C ]
! Terminal Bus Ref: [14 14 15 15 15 15 ]

! YPrim (G matrix)
!   0.3604338031 | -0.3604338031 |  -3.604338031 |   3.604338031 |  -3.604338031 |   3.604338031 |
!  -0.3604338031 |  0.3604338031 |   3.604338031 |  -3.604338031 |   3.604338031 |  -3.604338031 |
!   -3.604338031 |   3.604338031 |    486.556172 |   -486.556172 |  -414.4694114 |   414.4694114 |
!    3.604338031 |  -3.604338031 |   -486.556172 |    486.556172 |   414.4694114 |  -414.4694114 |
!   -3.604338031 |   3.604338031 |  -414.4694114 |   414.4694114 |    486.556172 |   -486.556172 |
!    3.604338031 |  -3.604338031 |   414.4694114 |  -414.4694114 |   -486.556172 |    486.556172 |
! YPrim (B Matrix) = 
!   -102.1229118 |   102.1229109 |   1021.229109 |  -1021.229109 |   1021.229109 |  -1021.229109 |
!    102.1229109 |  -102.1229126 |  -1021.229109 |   1021.229109 |  -1021.229109 |   1021.229109 |
!    1021.229109 |  -1021.229109 |  -61270.40783 |   61270.40748 |    40845.8253 |   -40845.8253 |
!   -1021.229109 |   1021.229109 |   61270.40748 |  -61270.40817 |   -40845.8253 |    40845.8253 |
!    1021.229109 |  -1021.229109 |    40845.8253 |   -40845.8253 |  -61270.40783 |   61270.40748 |
!   -1021.229109 |   1021.229109 |   -40845.8253 |    40845.8253 |   61270.40748 |  -61270.40817 |
~ NumWindings=3
~ phases=1
~ Wdg=1 bus=xfmr_meter_652_a_5.1
~ conn=wye
~ kv=2.40
~ kVA=10000.0
~ tap=1.000
~ %R=0.00
~ RdcOhms=1.4688E-005
~ rneut=-1.000
~ xneut=0.000
~ Wdg=2 bus=trip_node_652_a_5.1.0
~ conn=wye
~ kv=0.12
~ kVA=1000.0
~ tap=1.000
~ %R=0.01
~ RdcOhms=7.344E-008
~ rneut=-1.000
~ xneut=0.000
~ Wdg=3 bus=trip_node_652_a_5.0.2
~ conn=wye
~ kv=0.12
~ kVA=1000.0
~ tap=1.000
~ %R=0.01
~ RdcOhms=7.344E-008
~ rneut=-1.000
~ xneut=0.000
~ XHL=2.040
~ XHT=2.040
~ XLT=1.360
~ X12=2.040
~ X13=2.040
~ X23=1.360
~ Xscmatrix= "2.04 2.04 1.36 "
~ NormMAxHkVA=11000
~ EmergMAxHkVA=15000
~ thermal=2.0
~ n=0.8
~ m=0.8
~ flrise=65
~ hsrise=15
~ %loadloss=0
~ %noloadloss=0
~ normhkVA=11000
~ emerghkVA=15000
~ sub=n
~ MaxTap=1.1
~ MinTap=0.9
~ NumTaps=32
~ subname=
~ %imag=0
~ ppm_antifloat=1
~ %Rs=[0.003, 0.006, 0.006, ]
~ bank=
~ XfmrCode=
~ XRConst=NO
~ X12=2.04
~ X13=2.04
~ X23=1.36
~ LeadLag=Lag
~ WdgCurrents=0.004806235, (-89.999), 4.655449E-005, (-90.023), 0.04806234, (90.001), 
~ Core=shell
~ RdcOhms=7.344E-008
~ Seasons=1
~ Ratings=[1100,]
~ normamps=4583.3
~ emergamps=6250
~ faultrate=0.007
~ pctperm=100
~ repair=36
~ basefreq=60
~ enabled=true
~ like=

ZB:
9.00000000000001E-012 
3E-012 9E-012 
2.04E-009 
1.36E-009 2.04E-009 

ZB: (inverted)
7006408.8767 
-5968359.5237 7006408.8767 
-882293867.6994 
588179884.3442 -882293867.6994 

Y_OneVolt
2076098.7060 
-1038049.3530 7006408.8767 
-1038049.3530 -5968359.5237 7006408.8767 
-588227966.7104 
294113983.3552 -882293867.6994 
294113983.3552 588179884.3442 -882293867.6994 

Y_Terminal
0.3604 
-0.3604 0.3604 
-3.6043 3.6043 486.5562 
3.6043 -3.6043 -486.5562 486.5562 
-3.6043 3.6043 -414.4694 414.4694 486.5562 
3.6043 -3.6043 414.4694 -414.4694 -486.5562 486.5562 
-102.1229 
102.1229 -102.1229 
1021.2291 -1021.2291 -61270.4078 
-1021.2291 1021.2291 61270.4075 -61270.4078 
1021.2291 -1021.2291 40845.8253 -40845.8253 -61270.4078 
-1021.2291 1021.2291 -40845.8253 40845.8253 61270.4075 -61270.4078 

TermRef= 1 2 3 4 5 6 

New Transformer.xfmr_611_c_1
! ENABLED
! NPhases = 1
! Nconds = 2
! Nterms = 3
! Yorder = 6
! NodeRef = "31 0 32 0 0 33 "
! Terminal Status: [C C C C C C ]
! Terminal Bus Ref: [16 16 17 17 17 17 ]

! YPrim (G matrix)
!   0.3604338031 | -0.3604338031 |  -3.604338031 |   3.604338031 |  -3.604338031 |   3.604338031 |
!  -0.3604338031 |  0.3604338031 |   3.604338031 |  -3.604338031 |   3.604338031 |  -3.604338031 |
!   -3.604338031 |   3.604338031 |    486.556172 |   -486.556172 |  -414.4694114 |   414.4694114 |
!    3.604338031 |  -3.604338031 |   -486.556172 |    486.556172 |   414.4694114 |  -414.4694114 |
!   -3.604338031 |   3.604338031 |  -414.4694114 |   414.4694114 |    486.556172 |   -486.556172 |
!    3.604338031 |  -3.604338031 |   414.4694114 |  -414.4694114 |   -486.556172 |    486.556172 |
! YPrim (B Matrix) = 
!   -102.1229118 |   102.1229109 |   1021.229109 |  -1021.229109 |   1021.229109 |  -1021.229109 |
!    102.1229109 |  -102.1229126 |  -1021.229109 |   1021.229109 |  -1021.229109 |   1021.229109 |
!    1021.229109 |  -1021.229109 |  -61270.40783 |   61270.40748 |    40845.8253 |   -40845.8253 |
!   -1021.229109 |   1021.229109 |   61270.40748 |  -61270.40817 |   -40845.8253 |    40845.8253 |
!    1021.229109 |  -1021.229109 |    40845.8253 |   -40845.8253 |  -61270.40783 |   61270.40748 |
!   -1021.229109 |   1021.229109 |   -40845.8253 |    40845.8253 |   61270.40748 |  -61270.40817 |
~ NumWindings=3
~ phases=1
~ Wdg=1 bus=xfmr_meter_611_c_1.3
~ conn=wye
~ kv=2.40
~ kVA=10000.0
~ tap=1.000
~ %R=0.00
~ RdcOhms=1.4688E-005
~ rneut=-1.000
~ xneut=0.000
~ Wdg=2 bus=trip_node_611_c_1.1.0
~ conn=wye
~ kv=0.12
~ kVA=1000.0
~ tap=1.000
~ %R=0.01
~ RdcOhms=7.344E-008
~ rneut=-1.000
~ xneut=0.000
~ Wdg=3 bus=trip_node_611_c_1.0.2
~ conn=wye
~ kv=0.12
~ kVA=1000.0
~ tap=1.000
~ %R=0.01
~ RdcOhms=7.344E-008
~ rneut=-1.000
~ xneut=0.000
~ XHL=2.040
~ XHT=2.040
~ XLT=1.360
~ X12=2.040
~ X13=2.040
~ X23=1.360
~ Xscmatrix= "2.04 2.04 1.36 "
~ NormMAxHkVA=11000
~ EmergMAxHkVA=15000
~ thermal=2.0
~ n=0.8
~ m=0.8
~ flrise=65
~ hsrise=15
~ %loadloss=0
~ %noloadloss=0
~ normhkVA=11000
~ emerghkVA=15000
~ sub=n
~ MaxTap=1.1
~ MinTap=0.9
~ NumTaps=32
~ subname=
~ %imag=0
~ ppm_antifloat=1
~ %Rs=[0.003, 0.006, 0.006, ]
~ bank=
~ XfmrCode=
~ XRConst=NO
~ X12=2.04
~ X13=2.04
~ X23=1.36
~ LeadLag=Lag
~ WdgCurrents=0.0048062, (30.001), 4.655422E-005, (29.976), 0.048062, (-150), 
~ Core=shell
~ RdcOhms=7.344E-008
~ Seasons=1
~ Ratings=[1100,]
~ normamps=4583.3
~ emergamps=6250
~ faultrate=0.007
~ pctperm=100
~ repair=36
~ basefreq=60
~ enabled=true
~ like=

ZB:
9.00000000000001E-012 
3E-012 9E-012 
2.04E-009 
1.36E-009 2.04E-009 

ZB: (inverted)
7006408.8767 
-5968359.5237 7006408.8767 
-882293867.6994 
588179884.3442 -882293867.6994 

Y_OneVolt
2076098.7060 
-1038049.3530 7006408.8767 
-1038049.3530 -5968359.5237 7006408.8767 
-588227966.7104 
294113983.3552 -882293867.6994 
294113983.3552 588179884.3442 -882293867.6994 

Y_Terminal
0.3604 
-0.3604 0.3604 
-3.6043 3.6043 486.5562 
3.6043 -3.6043 -486.5562 486.5562 
-3.6043 3.6043 -414.4694 414.4694 486.5562 
3.6043 -3.6043 414.4694 -414.4694 -486.5562 486.5562 
-102.1229 
102.1229 -102.1229 
1021.2291 -1021.2291 -61270.4078 
-1021.2291 1021.2291 61270.4075 -61270.4078 
1021.2291 -1021.2291 40845.8253 -40845.8253 -61270.4078 
-1021.2291 1021.2291 -40845.8253 40845.8253 61270.4075 -61270.4078 

TermRef= 1 2 3 4 5 6 

New Transformer.xfmr_611_c_2
! ENABLED
! NPhases = 1
! Nconds = 2
! Nterms = 3
! Yorder = 6
! NodeRef = "34 0 35 0 0 36 "
! Terminal Status: [C C C C C C ]
! Terminal Bus Ref: [18 18 19 19 19 19 ]

! YPrim (G matrix)
!   0.3604338031 | -0.3604338031 |  -3.604338031 |   3.604338031 |  -3.604338031 |   3.604338031 |
!  -0.3604338031 |  0.3604338031 |   3.604338031 |  -3.604338031 |   3.604338031 |  -3.604338031 |
!   -3.604338031 |   3.604338031 |    486.556172 |   -486.556172 |  -414.4694114 |   414.4694114 |
!    3.604338031 |  -3.604338031 |   -486.556172 |    486.556172 |   414.4694114 |  -414.4694114 |
!   -3.604338031 |   3.604338031 |  -414.4694114 |   414.4694114 |    486.556172 |   -486.556172 |
!    3.604338031 |  -3.604338031 |   414.4694114 |  -414.4694114 |   -486.556172 |    486.556172 |
! YPrim (B Matrix) = 
!   -102.1229118 |   102.1229109 |   1021.229109 |  -1021.229109 |   1021.229109 |  -1021.229109 |
!    102.1229109 |  -102.1229126 |  -1021.229109 |   1021.229109 |  -1021.229109 |   1021.229109 |
!    1021.229109 |  -1021.229109 |  -61270.40783 |   61270.40748 |    40845.8253 |   -40845.8253 |
!   -1021.229109 |   1021.229109 |   61270.40748 |  -61270.40817 |   -40845.8253 |    40845.8253 |
!    1021.229109 |  -1021.229109 |    40845.8253 |   -40845.8253 |  -61270.40783 |   61270.40748 |
!   -1021.229109 |   1021.229109 |   -40845.8253 |    40845.8253 |   61270.40748 |  -61270.40817 |
~ NumWindings=3
~ phases=1
~ Wdg=1 bus=xfmr_meter_611_c_2.3
~ conn=wye
~ kv=2.40
~ kVA=10000.0
~ tap=1.000
~ %R=0.00
~ RdcOhms=1.4688E-005
~ rneut=-1.000
~ xneut=0.000
~ Wdg=2 bus=trip_node_611_c_2.1.0
~ conn=wye
~ kv=0.12
~ kVA=1000.0
~ tap=1.000
~ %R=0.01
~ RdcOhms=7.344E-008
~ rneut=-1.000
~ xneut=0.000
~ Wdg=3 bus=trip_node_611_c_2.0.2
~ conn=wye
~ kv=0.12
~ kVA=1000.0
~ tap=1.000
~ %R=0.01
~ RdcOhms=7.344E-008
~ rneut=-1.000
~ xneut=0.000
~ XHL=2.040
~ XHT=2.040
~ XLT=1.360
~ X12=2.040
~ X13=2.040
~ X23=1.360
~ Xscmatrix= "2.04 2.04 1.36 "
~ NormMAxHkVA=11000
~ EmergMAxHkVA=15000
~ thermal=2.0
~ n=0.8
~ m=0.8
~ flrise=65
~ hsrise=15
~ %loadloss=0
~ %noloadloss=0
~ normhkVA=11000
~ emerghkVA=15000
~ sub=n
~ MaxTap=1.1
~ MinTap=0.9
~ NumTaps=32
~ subname=
~ %imag=0
~ ppm_antifloat=1
~ %Rs=[0.003, 0.006, 0.006, ]
~ bank=
~ XfmrCode=
~ XRConst=NO
~ X12=2.04
~ X13=2.04
~ X23=1.36
~ LeadLag=Lag
~ WdgCurrents=0.0048062, (30.001), 4.655468E-005, (29.977), 0.048062, (-150), 
~ Core=shell
~ RdcOhms=7.344E-008
~ Seasons=1
~ Ratings=[1100,]
~ normamps=4583.3
~ emergamps=6250
~ faultrate=0.007
~ pctperm=100
~ repair=36
~ basefreq=60
~ enabled=true
~ like=

ZB:
9.00000000000001E-012 
3E-012 9E-012 
2.04E-009 
1.36E-009 2.04E-009 

ZB: (inverted)
7006408.8767 
-5968359.5237 7006408.8767 
-882293867.6994 
588179884.3442 -882293867.6994 

Y_OneVolt
2076098.7060 
-1038049.3530 7006408.8767 
-1038049.3530 -5968359.5237 7006408.8767 
-588227966.7104 
294113983.3552 -882293867.6994 
294113983.3552 588179884.3442 -882293867.6994 

Y_Terminal
0.3604 
-0.3604 0.3604 
-3.6043 3.6043 486.5562 
3.6043 -3.6043 -486.5562 486.5562 
-3.6043 3.6043 -414.4694 414.4694 486.5562 
3.6043 -3.6043 414.4694 -414.4694 -486.5562 486.5562 
-102.1229 
102.1229 -102.1229 
1021.2291 -1021.2291 -61270.4078 
-1021.2291 1021.2291 61270.4075 -61270.4078 
1021.2291 -1021.2291 40845.8253 -40845.8253 -61270.4078 
-1021.2291 1021.2291 -40845.8253 40845.8253 61270.4075 -61270.4078 

TermRef= 1 2 3 4 5 6 

New Transformer.xfmr_611_c_3
! ENABLED
! NPhases = 1
! Nconds = 2
! Nterms = 3
! Yorder = 6
! NodeRef = "37 0 38 0 0 39 "
! Terminal Status: [C C C C C C ]
! Terminal Bus Ref: [20 20 21 21 21 21 ]

! YPrim (G matrix)
!   0.3604338031 | -0.3604338031 |  -3.604338031 |   3.604338031 |  -3.604338031 |   3.604338031 |
!  -0.3604338031 |  0.3604338031 |   3.604338031 |  -3.604338031 |   3.604338031 |  -3.604338031 |
!   -3.604338031 |   3.604338031 |    486.556172 |   -486.556172 |  -414.4694114 |   414.4694114 |
!    3.604338031 |  -3.604338031 |   -486.556172 |    486.556172 |   414.4694114 |  -414.4694114 |
!   -3.604338031 |   3.604338031 |  -414.4694114 |   414.4694114 |    486.556172 |   -486.556172 |
!    3.604338031 |  -3.604338031 |   414.4694114 |  -414.4694114 |   -486.556172 |    486.556172 |
! YPrim (B Matrix) = 
!   -102.1229118 |   102.1229109 |   1021.229109 |  -1021.229109 |   1021.229109 |  -1021.229109 |
!    102.1229109 |  -102.1229126 |  -1021.229109 |   1021.229109 |  -1021.229109 |   1021.229109 |
!    1021.229109 |  -1021.229109 |  -61270.40783 |   61270.40748 |    40845.8253 |   -40845.8253 |
!   -1021.229109 |   1021.229109 |   61270.40748 |  -61270.40817 |   -40845.8253 |    40845.8253 |
!    1021.229109 |  -1021.229109 |    40845.8253 |   -40845.8253 |  -61270.40783 |   61270.40748 |
!   -1021.229109 |   1021.229109 |   -40845.8253 |    40845.8253 |   61270.40748 |  -61270.40817 |
~ NumWindings=3
~ phases=1
~ Wdg=1 bus=xfmr_meter_611_c_3.3
~ conn=wye
~ kv=2.40
~ kVA=10000.0
~ tap=1.000
~ %R=0.00
~ RdcOhms=1.4688E-005
~ rneut=-1.000
~ xneut=0.000
~ Wdg=2 bus=trip_node_611_c_3.1.0
~ conn=wye
~ kv=0.12
~ kVA=1000.0
~ tap=1.000
~ %R=0.01
~ RdcOhms=7.344E-008
~ rneut=-1.000
~ xneut=0.000
~ Wdg=3 bus=trip_node_611_c_3.0.2
~ conn=wye
~ kv=0.12
~ kVA=1000.0
~ tap=1.000
~ %R=0.01
~ RdcOhms=7.344E-008
~ rneut=-1.000
~ xneut=0.000
~ XHL=2.040
~ XHT=2.040
~ XLT=1.360
~ X12=2.040
~ X13=2.040
~ X23=1.360
~ Xscmatrix= "2.04 2.04 1.36 "
~ NormMAxHkVA=11000
~ EmergMAxHkVA=15000
~ thermal=2.0
~ n=0.8
~ m=0.8
~ flrise=65
~ hsrise=15
~ %loadloss=0
~ %noloadloss=0
~ normhkVA=11000
~ emerghkVA=15000
~ sub=n
~ MaxTap=1.1
~ MinTap=0.9
~ NumTaps=32
~ subname=
~ %imag=0
~ ppm_antifloat=1
~ %Rs=[0.003, 0.006, 0.006, ]
~ bank=
~ XfmrCode=
~ XRConst=NO
~ X12=2.04
~ X13=2.04
~ X23=1.36
~ LeadLag=Lag
~ WdgCurrents=0.0048062, (30.001), 4.655457E-005, (29.977), 0.048062, (-150), 
~ Core=shell
~ RdcOhms=7.344E-008
~ Seasons=1
~ Ratings=[1100,]
~ normamps=4583.3
~ emergamps=6250
~ faultrate=0.007
~ pctperm=100
~ repair=36
~ basefreq=60
~ enabled=true
~ like=

ZB:
9.00000000000001E-012 
3E-012 9E-012 
2.04E-009 
1.36E-009 2.04E-009 

ZB: (inverted)
7006408.8767 
-5968359.5237 7006408.8767 
-882293867.6994 
588179884.3442 -882293867.6994 

Y_OneVolt
2076098.7060 
-1038049.3530 7006408.8767 
-1038049.3530 -5968359.5237 7006408.8767 
-588227966.7104 
294113983.3552 -882293867.6994 
294113983.3552 588179884.3442 -882293867.6994 

Y_Terminal
0.3604 
-0.3604 0.3604 
-3.6043 3.6043 486.5562 
3.6043 -3.6043 -486.5562 486.5562 
-3.6043 3.6043 -414.4694 414.4694 486.5562 
3.6043 -3.6043 414.4694 -414.4694 -486.5562 486.5562 
-102.1229 
102.1229 -102.1229 
1021.2291 -1021.2291 -61270.4078 
-1021.2291 1021.2291 61270.4075 -61270.4078 
1021.2291 -1021.2291 40845.8253 -40845.8253 -61270.4078 
-1021.2291 1021.2291 -40845.8253 40845.8253 61270.4075 -61270.4078 

TermRef= 1 2 3 4 5 6 

New Transformer.xfmr_611_c_4
! ENABLED
! NPhases = 1
! Nconds = 2
! Nterms = 3
! Yorder = 6
! NodeRef = "40 0 41 0 0 42 "
! Terminal Status: [C C C C C C ]
! Terminal Bus Ref: [22 22 23 23 23 23 ]

! YPrim (G matrix)
!   0.3604338031 | -0.3604338031 |  -3.604338031 |   3.604338031 |  -3.604338031 |   3.604338031 |
!  -0.3604338031 |  0.3604338031 |   3.604338031 |  -3.604338031 |   3.604338031 |  -3.604338031 |
!   -3.604338031 |   3.604338031 |    486.556172 |   -486.556172 |  -414.4694114 |   414.4694114 |
!    3.604338031 |  -3.604338031 |   -486.556172 |    486.556172 |   414.4694114 |  -414.4694114 |
!   -3.604338031 |   3.604338031 |  -414.4694114 |   414.4694114 |    486.556172 |   -486.556172 |
!    3.604338031 |  -3.604338031 |   414.4694114 |  -414.4694114 |   -486.556172 |    486.556172 |
! YPrim (B Matrix) = 
!   -102.1229118 |   102.1229109 |   1021.229109 |  -1021.229109 |   1021.229109 |  -1021.229109 |
!    102.1229109 |  -102.1229126 |  -1021.229109 |   1021.229109 |  -1021.229109 |   1021.229109 |
!    1021.229109 |  -1021.229109 |  -61270.40783 |   61270.40748 |    40845.8253 |   -40845.8253 |
!   -1021.229109 |   1021.229109 |   61270.40748 |  -61270.40817 |   -40845.8253 |    40845.8253 |
!    1021.229109 |  -1021.229109 |    40845.8253 |   -40845.8253 |  -61270.40783 |   61270.40748 |
!   -1021.229109 |   1021.229109 |   -40845.8253 |    40845.8253 |   61270.40748 |  -61270.40817 |
~ NumWindings=3
~ phases=1
~ Wdg=1 bus=xfmr_meter_611_c_4.3
~ conn=wye
~ kv=2.40
~ kVA=10000.0
~ tap=1.000
~ %R=0.00
~ RdcOhms=1.4688E-005
~ rneut=-1.000
~ xneut=0.000
~ Wdg=2 bus=trip_node_611_c_4.1.0
~ conn=wye
~ kv=0.12
~ kVA=1000.0
~ tap=1.000
~ %R=0.01
~ RdcOhms=7.344E-008
~ rneut=-1.000
~ xneut=0.000
~ Wdg=3 bus=trip_node_611_c_4.0.2
~ conn=wye
~ kv=0.12
~ kVA=1000.0
~ tap=1.000
~ %R=0.01
~ RdcOhms=7.344E-008
~ rneut=-1.000
~ xneut=0.000
~ XHL=2.040
~ XHT=2.040
~ XLT=1.360
~ X12=2.040
~ X13=2.040
~ X23=1.360
~ Xscmatrix= "2.04 2.04 1.36 "
~ NormMAxHkVA=11000
~ EmergMAxHkVA=15000
~ thermal=2.0
~ n=0.8
~ m=0.8
~ flrise=65
~ hsrise=15
~ %loadloss=0
~ %noloadloss=0
~ normhkVA=11000
~ emerghkVA=15000
~ sub=n
~ MaxTap=1.1
~ MinTap=0.9
~ NumTaps=32
~ subname=
~ %imag=0
~ ppm_antifloat=1
~ %Rs=[0.003, 0.006, 0.006, ]
~ bank=
~ XfmrCode=
~ XRConst=NO
~ X12=2.04
~ X13=2.04
~ X23=1.36
~ LeadLag=Lag
~ WdgCurrents=0.0048062, (30.001), 4.655457E-005, (29.977), 0.048062, (-150), 
~ Core=shell
~ RdcOhms=7.344E-008
~ Seasons=1
~ Ratings=[1100,]
~ normamps=4583.3
~ emergamps=6250
~ faultrate=0.007
~ pctperm=100
~ repair=36
~ basefreq=60
~ enabled=true
~ like=

ZB:
9.00000000000001E-012 
3E-012 9E-012 
2.04E-009 
1.36E-009 2.04E-009 

ZB: (inverted)
7006408.8767 
-5968359.5237 7006408.8767 
-882293867.6994 
588179884.3442 -882293867.6994 

Y_OneVolt
2076098.7060 
-1038049.3530 7006408.8767 
-1038049.3530 -5968359.5237 7006408.8767 
-588227966.7104 
294113983.3552 -882293867.6994 
294113983.3552 588179884.3442 -882293867.6994 

Y_Terminal
0.3604 
-0.3604 0.3604 
-3.6043 3.6043 486.5562 
3.6043 -3.6043 -486.5562 486.5562 
-3.6043 3.6043 -414.4694 414.4694 486.5562 
3.6043 -3.6043 414.4694 -414.4694 -486.5562 486.5562 
-102.1229 
102.1229 -102.1229 
1021.2291 -1021.2291 -61270.4078 
-1021.2291 1021.2291 61270.4075 -61270.4078 
1021.2291 -1021.2291 40845.8253 -40845.8253 -61270.4078 
-1021.2291 1021.2291 -40845.8253 40845.8253 61270.4075 -61270.4078 

TermRef= 1 2 3 4 5 6 

New Transformer.xfmr_611_c_5
! ENABLED
! NPhases = 1
! Nconds = 2
! Nterms = 3
! Yorder = 6
! NodeRef = "43 0 44 0 0 45 "
! Terminal Status: [C C C C C C ]
! Terminal Bus Ref: [24 24 25 25 25 25 ]

! YPrim (G matrix)
!   0.3604338031 | -0.3604338031 |  -3.604338031 |   3.604338031 |  -3.604338031 |   3.604338031 |
!  -0.3604338031 |  0.3604338031 |   3.604338031 |  -3.604338031 |   3.604338031 |  -3.604338031 |
!   -3.604338031 |   3.604338031 |    486.556172 |   -486.556172 |  -414.4694114 |   414.4694114 |
!    3.604338031 |  -3.604338031 |   -486.556172 |    486.556172 |   414.4694114 |  -414.4694114 |
!   -3.604338031 |   3.604338031 |  -414.4694114 |   414.4694114 |    486.556172 |   -486.556172 |
!    3.604338031 |  -3.604338031 |   414.4694114 |  -414.4694114 |   -486.556172 |    486.556172 |
! YPrim (B Matrix) = 
!   -102.1229118 |   102.1229109 |   1021.229109 |  -1021.229109 |   1021.229109 |  -1021.229109 |
!    102.1229109 |  -102.1229126 |  -1021.229109 |   1021.229109 |  -1021.229109 |   1021.229109 |
!    1021.229109 |  -1021.229109 |  -61270.40783 |   61270.40748 |    40845.8253 |   -40845.8253 |
!   -1021.229109 |   1021.229109 |   61270.40748 |  -61270.40817 |   -40845.8253 |    40845.8253 |
!    1021.229109 |  -1021.229109 |    40845.8253 |   -40845.8253 |  -61270.40783 |   61270.40748 |
!   -1021.229109 |   1021.229109 |   -40845.8253 |    40845.8253 |   61270.40748 |  -61270.40817 |
~ NumWindings=3
~ phases=1
~ Wdg=1 bus=xfmr_meter_611_c_5.3
~ conn=wye
~ kv=2.40
~ kVA=10000.0
~ tap=1.000
~ %R=0.00
~ RdcOhms=1.4688E-005
~ rneut=-1.000
~ xneut=0.000
~ Wdg=2 bus=trip_node_611_c_5.1.0
~ conn=wye
~ kv=0.12
~ kVA=1000.0
~ tap=1.000
~ %R=0.01
~ RdcOhms=7.344E-008
~ rneut=-1.000
~ xneut=0.000
~ Wdg=3 bus=trip_node_611_c_5.0.2
~ conn=wye
~ kv=0.12
~ kVA=1000.0
~ tap=1.000
~ %R=0.01
~ RdcOhms=7.344E-008
~ rneut=-1.000
~ xneut=0.000
~ XHL=2.040
~ XHT=2.040
~ XLT=1.360
~ X12=2.040
~ X13=2.040
~ X23=1.360
~ Xscmatrix= "2.04 2.04 1.36 "
~ NormMAxHkVA=11000
~ EmergMAxHkVA=15000
~ thermal=2.0
~ n=0.8
~ m=0.8
~ flrise=65
~ hsrise=15
~ %loadloss=0
~ %noloadloss=0
~ normhkVA=11000
~ emerghkVA=15000
~ sub=n
~ MaxTap=1.1
~ MinTap=0.9
~ NumTaps=32
~ subname=
~ %imag=0
~ ppm_antifloat=1
~ %Rs=[0.003, 0.006, 0.006, ]
~ bank=
~ XfmrCode=
~ XRConst=NO
~ X12=2.04
~ X13=2.04
~ X23=1.36
~ LeadLag=Lag
~ WdgCurrents=0.0048062, (30.001), 4.655457E-005, (29.977), 0.048062, (-150), 
~ Core=shell
~ RdcOhms=7.344E-008
~ Seasons=1
~ Ratings=[1100,]
~ normamps=4583.3
~ emergamps=6250
~ faultrate=0.007
~ pctperm=100
~ repair=36
~ basefreq=60
~ enabled=true
~ like=

ZB:
9.00000000000001E-012 
3E-012 9E-012 
2.04E-009 
1.36E-009 2.04E-009 

ZB: (inverted)
7006408.8767 
-5968359.5237 7006408.8767 
-882293867.6994 
588179884.3442 -882293867.6994 

Y_OneVolt
2076098.7060 
-1038049.3530 7006408.8767 
-1038049.3530 -5968359.5237 7006408.8767 
-588227966.7104 
294113983.3552 -882293867.6994 
294113983.3552 588179884.3442 -882293867.6994 

Y_Terminal
0.3604 
-0.3604 0.3604 
-3.6043 3.6043 486.5562 
3.6043 -3.6043 -486.5562 486.5562 
-3.6043 3.6043 -414.4694 414.4694 486.5562 
3.6043 -3.6043 414.4694 -414.4694 -486.5562 486.5562 
-102.1229 
102.1229 -102.1229 
1021.2291 -1021.2291 -61270.4078 
-1021.2291 1021.2291 61270.4075 -61270.4078 
1021.2291 -1021.2291 40845.8253 -40845.8253 -61270.4078 
-1021.2291 1021.2291 -40845.8253 40845.8253 61270.4075 -61270.4078 

TermRef= 1 2 3 4 5 6 

New Transformer.xfmr_684_c_1
! ENABLED
! NPhases = 1
! Nconds = 2
! Nterms = 3
! Yorder = 6
! NodeRef = "46 0 47 0 0 48 "
! Terminal Status: [C C C C C C ]
! Terminal Bus Ref: [26 26 27 27 27 27 ]

! YPrim (G matrix)
!   0.3604338031 | -0.3604338031 |  -3.604338031 |   3.604338031 |  -3.604338031 |   3.604338031 |
!  -0.3604338031 |  0.3604338031 |   3.604338031 |  -3.604338031 |   3.604338031 |  -3.604338031 |
!   -3.604338031 |   3.604338031 |    486.556172 |   -486.556172 |  -414.4694114 |   414.4694114 |
!    3.604338031 |  -3.604338031 |   -486.556172 |    486.556172 |   414.4694114 |  -414.4694114 |
!   -3.604338031 |   3.604338031 |  -414.4694114 |   414.4694114 |    486.556172 |   -486.556172 |
!    3.604338031 |  -3.604338031 |   414.4694114 |  -414.4694114 |   -486.556172 |    486.556172 |
! YPrim (B Matrix) = 
!   -102.1229118 |   102.1229109 |   1021.229109 |  -1021.229109 |   1021.229109 |  -1021.229109 |
!    102.1229109 |  -102.1229126 |  -1021.229109 |   1021.229109 |  -1021.229109 |   1021.229109 |
!    1021.229109 |  -1021.229109 |  -61270.40783 |   61270.40748 |    40845.8253 |   -40845.8253 |
!   -1021.229109 |   1021.229109 |   61270.40748 |  -61270.40817 |   -40845.8253 |    40845.8253 |
!    1021.229109 |  -1021.229109 |    40845.8253 |   -40845.8253 |  -61270.40783 |   61270.40748 |
!   -1021.229109 |   1021.229109 |   -40845.8253 |    40845.8253 |   61270.40748 |  -61270.40817 |
~ NumWindings=3
~ phases=1
~ Wdg=1 bus=xfmr_meter_684_c_1.3
~ conn=wye
~ kv=2.40
~ kVA=10000.0
~ tap=1.000
~ %R=0.00
~ RdcOhms=1.4688E-005
~ rneut=-1.000
~ xneut=0.000
~ Wdg=2 bus=trip_node_684_c_1.1.0
~ conn=wye
~ kv=0.12
~ kVA=1000.0
~ tap=1.000
~ %R=0.01
~ RdcOhms=7.344E-008
~ rneut=-1.000
~ xneut=0.000
~ Wdg=3 bus=trip_node_684_c_1.0.2
~ conn=wye
~ kv=0.12
~ kVA=1000.0
~ tap=1.000
~ %R=0.01
~ RdcOhms=7.344E-008
~ rneut=-1.000
~ xneut=0.000
~ XHL=2.040
~ XHT=2.040
~ XLT=1.360
~ X12=2.040
~ X13=2.040
~ X23=1.360
~ Xscmatrix= "2.04 2.04 1.36 "
~ NormMAxHkVA=11000
~ EmergMAxHkVA=15000
~ thermal=2.0
~ n=0.8
~ m=0.8
~ flrise=65
~ hsrise=15
~ %loadloss=0
~ %noloadloss=0
~ normhkVA=11000
~ emerghkVA=15000
~ sub=n
~ MaxTap=1.1
~ MinTap=0.9
~ NumTaps=32
~ subname=
~ %imag=0
~ ppm_antifloat=1
~ %Rs=[0.003, 0.006, 0.006, ]
~ bank=
~ XfmrCode=
~ XRConst=NO
~ X12=2.04
~ X13=2.04
~ X23=1.36
~ LeadLag=Lag
~ WdgCurrents=0.004806202, (30.001), 4.655549E-005, (29.977), 0.04806202, (-150), 
~ Core=shell
~ RdcOhms=7.344E-008
~ Seasons=1
~ Ratings=[1100,]
~ normamps=4583.3
~ emergamps=6250
~ faultrate=0.007
~ pctperm=100
~ repair=36
~ basefreq=60
~ enabled=true
~ like=

ZB:
9.00000000000001E-012 
3E-012 9E-012 
2.04E-009 
1.36E-009 2.04E-009 

ZB: (inverted)
7006408.8767 
-5968359.5237 7006408.8767 
-882293867.6994 
588179884.3442 -882293867.6994 

Y_OneVolt
2076098.7060 
-1038049.3530 7006408.8767 
-1038049.3530 -5968359.5237 7006408.8767 
-588227966.7104 
294113983.3552 -882293867.6994 
294113983.3552 588179884.3442 -882293867.6994 

Y_Terminal
0.3604 
-0.3604 0.3604 
-3.6043 3.6043 486.5562 
3.6043 -3.6043 -486.5562 486.5562 
-3.6043 3.6043 -414.4694 414.4694 486.5562 
3.6043 -3.6043 414.4694 -414.4694 -486.5562 486.5562 
-102.1229 
102.1229 -102.1229 
1021.2291 -1021.2291 -61270.4078 
-1021.2291 1021.2291 61270.4075 -61270.4078 
1021.2291 -1021.2291 40845.8253 -40845.8253 -61270.4078 
-1021.2291 1021.2291 -40845.8253 40845.8253 61270.4075 -61270.4078 

TermRef= 1 2 3 4 5 6 

New Transformer.xfmr_684_c_2
! ENABLED
! NPhases = 1
! Nconds = 2
! Nterms = 3
! Yorder = 6
! NodeRef = "49 0 50 0 0 51 "
! Terminal Status: [C C C C C C ]
! Terminal Bus Ref: [28 28 29 29 29 29 ]

! YPrim (G matrix)
!   0.3604338031 | -0.3604338031 |  -3.604338031 |   3.604338031 |  -3.604338031 |   3.604338031 |
!  -0.3604338031 |  0.3604338031 |   3.604338031 |  -3.604338031 |   3.604338031 |  -3.604338031 |
!   -3.604338031 |   3.604338031 |    486.556172 |   -486.556172 |  -414.4694114 |   414.4694114 |
!    3.604338031 |  -3.604338031 |   -486.556172 |    486.556172 |   414.4694114 |  -414.4694114 |
!   -3.604338031 |   3.604338031 |  -414.4694114 |   414.4694114 |    486.556172 |   -486.556172 |
!    3.604338031 |  -3.604338031 |   414.4694114 |  -414.4694114 |   -486.556172 |    486.556172 |
! YPrim (B Matrix) = 
!   -102.1229118 |   102.1229109 |   1021.229109 |  -1021.229109 |   1021.229109 |  -1021.229109 |
!    102.1229109 |  -102.1229126 |  -1021.229109 |   1021.229109 |  -1021.229109 |   1021.229109 |
!    1021.229109 |  -1021.229109 |  -61270.40783 |   61270.40748 |    40845.8253 |   -40845.8253 |
!   -1021.229109 |   1021.229109 |   61270.40748 |  -61270.40817 |   -40845.8253 |    40845.8253 |
!    1021.229109 |  -1021.229109 |    40845.8253 |   -40845.8253 |  -61270.40783 |   61270.40748 |
!   -1021.229109 |   1021.229109 |   -40845.8253 |    40845.8253 |   61270.40748 |  -61270.40817 |
~ NumWindings=3
~ phases=1
~ Wdg=1 bus=xfmr_meter_684_c_2.3
~ conn=wye
~ kv=2.40
~ kVA=10000.0
~ tap=1.000
~ %R=0.00
~ RdcOhms=1.4688E-005
~ rneut=-1.000
~ xneut=0.000
~ Wdg=2 bus=trip_node_684_c_2.1.0
~ conn=wye
~ kv=0.12
~ kVA=1000.0
~ tap=1.000
~ %R=0.01
~ RdcOhms=7.344E-008
~ rneut=-1.000
~ xneut=0.000
~ Wdg=3 bus=trip_node_684_c_2.0.2
~ conn=wye
~ kv=0.12
~ kVA=1000.0
~ tap=1.000
~ %R=0.01
~ RdcOhms=7.344E-008
~ rneut=-1.000
~ xneut=0.000
~ XHL=2.040
~ XHT=2.040
~ XLT=1.360
~ X12=2.040
~ X13=2.040
~ X23=1.360
~ Xscmatrix= "2.04 2.04 1.36 "
~ NormMAxHkVA=11000
~ EmergMAxHkVA=15000
~ thermal=2.0
~ n=0.8
~ m=0.8
~ flrise=65
~ hsrise=15
~ %loadloss=0
~ %noloadloss=0
~ normhkVA=11000
~ emerghkVA=15000
~ sub=n
~ MaxTap=1.1
~ MinTap=0.9
~ NumTaps=32
~ subname=
~ %imag=0
~ ppm_antifloat=1
~ %Rs=[0.003, 0.006, 0.006, ]
~ bank=
~ XfmrCode=
~ XRConst=NO
~ X12=2.04
~ X13=2.04
~ X23=1.36
~ LeadLag=Lag
~ WdgCurrents=0.004806202, (30.001), 4.655503E-005, (29.976), 0.04806202, (-150), 
~ Core=shell
~ RdcOhms=7.344E-008
~ Seasons=1
~ Ratings=[1100,]
~ normamps=4583.3
~ emergamps=6250
~ faultrate=0.007
~ pctperm=100
~ repair=36
~ basefreq=60
~ enabled=true
~ like=

ZB:
9.00000000000001E-012 
3E-012 9E-012 
2.04E-009 
1.36E-009 2.04E-009 

ZB: (inverted)
7006408.8767 
-5968359.5237 7006408.8767 
-882293867.6994 
588179884.3442 -882293867.6994 

Y_OneVolt
2076098.7060 
-1038049.3530 7006408.8767 
-1038049.3530 -5968359.5237 7006408.8767 
-588227966.7104 
294113983.3552 -882293867.6994 
294113983.3552 588179884.3442 -882293867.6994 

Y_Terminal
0.3604 
-0.3604 0.3604 
-3.6043 3.6043 486.5562 
3.6043 -3.6043 -486.5562 486.5562 
-3.6043 3.6043 -414.4694 414.4694 486.5562 
3.6043 -3.6043 414.4694 -414.4694 -486.5562 486.5562 
-102.1229 
102.1229 -102.1229 
1021.2291 -1021.2291 -61270.4078 
-1021.2291 1021.2291 61270.4075 -61270.4078 
1021.2291 -1021.2291 40845.8253 -40845.8253 -61270.4078 
-1021.2291 1021.2291 -40845.8253 40845.8253 61270.4075 -61270.4078 

TermRef= 1 2 3 4 5 6 

New Transformer.xfmr_684_c_3
! ENABLED
! NPhases = 1
! Nconds = 2
! Nterms = 3
! Yorder = 6
! NodeRef = "52 0 53 0 0 54 "
! Terminal Status: [C C C C C C ]
! Terminal Bus Ref: [30 30 31 31 31 31 ]

! YPrim (G matrix)
!   0.3604338031 | -0.3604338031 |  -3.604338031 |   3.604338031 |  -3.604338031 |   3.604338031 |
!  -0.3604338031 |  0.3604338031 |   3.604338031 |  -3.604338031 |   3.604338031 |  -3.604338031 |
!   -3.604338031 |   3.604338031 |    486.556172 |   -486.556172 |  -414.4694114 |   414.4694114 |
!    3.604338031 |  -3.604338031 |   -486.556172 |    486.556172 |   414.4694114 |  -414.4694114 |
!   -3.604338031 |   3.604338031 |  -414.4694114 |   414.4694114 |    486.556172 |   -486.556172 |
!    3.604338031 |  -3.604338031 |   414.4694114 |  -414.4694114 |   -486.556172 |    486.556172 |
! YPrim (B Matrix) = 
!   -102.1229118 |   102.1229109 |   1021.229109 |  -1021.229109 |   1021.229109 |  -1021.229109 |
!    102.1229109 |  -102.1229126 |  -1021.229109 |   1021.229109 |  -1021.229109 |   1021.229109 |
!    1021.229109 |  -1021.229109 |  -61270.40783 |   61270.40748 |    40845.8253 |   -40845.8253 |
!   -1021.229109 |   1021.229109 |   61270.40748 |  -61270.40817 |   -40845.8253 |    40845.8253 |
!    1021.229109 |  -1021.229109 |    40845.8253 |   -40845.8253 |  -61270.40783 |   61270.40748 |
!   -1021.229109 |   1021.229109 |   -40845.8253 |    40845.8253 |   61270.40748 |  -61270.40817 |
~ NumWindings=3
~ phases=1
~ Wdg=1 bus=xfmr_meter_684_c_3.3
~ conn=wye
~ kv=2.40
~ kVA=10000.0
~ tap=1.000
~ %R=0.00
~ RdcOhms=1.4688E-005
~ rneut=-1.000
~ xneut=0.000
~ Wdg=2 bus=trip_node_684_c_3.1.0
~ conn=wye
~ kv=0.12
~ kVA=1000.0
~ tap=1.000
~ %R=0.01
~ RdcOhms=7.344E-008
~ rneut=-1.000
~ xneut=0.000
~ Wdg=3 bus=trip_node_684_c_3.0.2
~ conn=wye
~ kv=0.12
~ kVA=1000.0
~ tap=1.000
~ %R=0.01
~ RdcOhms=7.344E-008
~ rneut=-1.000
~ xneut=0.000
~ XHL=2.040
~ XHT=2.040
~ XLT=1.360
~ X12=2.040
~ X13=2.040
~ X23=1.360
~ Xscmatrix= "2.04 2.04 1.36 "
~ NormMAxHkVA=11000
~ EmergMAxHkVA=15000
~ thermal=2.0
~ n=0.8
~ m=0.8
~ flrise=65
~ hsrise=15
~ %loadloss=0
~ %noloadloss=0
~ normhkVA=11000
~ emerghkVA=15000
~ sub=n
~ MaxTap=1.1
~ MinTap=0.9
~ NumTaps=32
~ subname=
~ %imag=0
~ ppm_antifloat=1
~ %Rs=[0.003, 0.006, 0.006, ]
~ bank=
~ XfmrCode=
~ XRConst=NO
~ X12=2.04
~ X13=2.04
~ X23=1.36
~ LeadLag=Lag
~ WdgCurrents=0.004806202, (30.001), 4.655526E-005, (29.976), 0.04806202, (-150), 
~ Core=shell
~ RdcOhms=7.344E-008
~ Seasons=1
~ Ratings=[1100,]
~ normamps=4583.3
~ emergamps=6250
~ faultrate=0.007
~ pctperm=100
~ repair=36
~ basefreq=60
~ enabled=true
~ like=

ZB:
9.00000000000001E-012 
3E-012 9E-012 
2.04E-009 
1.36E-009 2.04E-009 

ZB: (inverted)
7006408.8767 
-5968359.5237 7006408.8767 
-882293867.6994 
588179884.3442 -882293867.6994 

Y_OneVolt
2076098.7060 
-1038049.3530 7006408.8767 
-1038049.3530 -5968359.5237 7006408.8767 
-588227966.7104 
294113983.3552 -882293867.6994 
294113983.3552 588179884.3442 -882293867.6994 

Y_Terminal
0.3604 
-0.3604 0.3604 
-3.6043 3.6043 486.5562 
3.6043 -3.6043 -486.5562 486.5562 
-3.6043 3.6043 -414.4694 414.4694 486.5562 
3.6043 -3.6043 414.4694 -414.4694 -486.5562 486.5562 
-102.1229 
102.1229 -102.1229 
1021.2291 -1021.2291 -61270.4078 
-1021.2291 1021.2291 61270.4075 -61270.4078 
1021.2291 -1021.2291 40845.8253 -40845.8253 -61270.4078 
-1021.2291 1021.2291 -40845.8253 40845.8253 61270.4075 -61270.4078 

TermRef= 1 2 3 4 5 6 

New Transformer.xfmr_684_c_4
! ENABLED
! NPhases = 1
! Nconds = 2
! Nterms = 3
! Yorder = 6
! NodeRef = "55 0 56 0 0 57 "
! Terminal Status: [C C C C C C ]
! Terminal Bus Ref: [32 32 33 33 33 33 ]

! YPrim (G matrix)
!   0.3604338031 | -0.3604338031 |  -3.604338031 |   3.604338031 |  -3.604338031 |   3.604338031 |
!  -0.3604338031 |  0.3604338031 |   3.604338031 |  -3.604338031 |   3.604338031 |  -3.604338031 |
!   -3.604338031 |   3.604338031 |    486.556172 |   -486.556172 |  -414.4694114 |   414.4694114 |
!    3.604338031 |  -3.604338031 |   -486.556172 |    486.556172 |   414.4694114 |  -414.4694114 |
!   -3.604338031 |   3.604338031 |  -414.4694114 |   414.4694114 |    486.556172 |   -486.556172 |
!    3.604338031 |  -3.604338031 |   414.4694114 |  -414.4694114 |   -486.556172 |    486.556172 |
! YPrim (B Matrix) = 
!   -102.1229118 |   102.1229109 |   1021.229109 |  -1021.229109 |   1021.229109 |  -1021.229109 |
!    102.1229109 |  -102.1229126 |  -1021.229109 |   1021.229109 |  -1021.229109 |   1021.229109 |
!    1021.229109 |  -1021.229109 |  -61270.40783 |   61270.40748 |    40845.8253 |   -40845.8253 |
!   -1021.229109 |   1021.229109 |   61270.40748 |  -61270.40817 |   -40845.8253 |    40845.8253 |
!    1021.229109 |  -1021.229109 |    40845.8253 |   -40845.8253 |  -61270.40783 |   61270.40748 |
!   -1021.229109 |   1021.229109 |   -40845.8253 |    40845.8253 |   61270.40748 |  -61270.40817 |
~ NumWindings=3
~ phases=1
~ Wdg=1 bus=xfmr_meter_684_c_4.3
~ conn=wye
~ kv=2.40
~ kVA=10000.0
~ tap=1.000
~ %R=0.00
~ RdcOhms=1.4688E-005
~ rneut=-1.000
~ xneut=0.000
~ Wdg=2 bus=trip_node_684_c_4.1.0
~ conn=wye
~ kv=0.12
~ kVA=1000.0
~ tap=1.000
~ %R=0.01
~ RdcOhms=7.344E-008
~ rneut=-1.000
~ xneut=0.000
~ Wdg=3 bus=trip_node_684_c_4.0.2
~ conn=wye
~ kv=0.12
~ kVA=1000.0
~ tap=1.000
~ %R=0.01
~ RdcOhms=7.344E-008
~ rneut=-1.000
~ xneut=0.000
~ XHL=2.040
~ XHT=2.040
~ XLT=1.360
~ X12=2.040
~ X13=2.040
~ X23=1.360
~ Xscmatrix= "2.04 2.04 1.36 "
~ NormMAxHkVA=11000
~ EmergMAxHkVA=15000
~ thermal=2.0
~ n=0.8
~ m=0.8
~ flrise=65
~ hsrise=15
~ %loadloss=0
~ %noloadloss=0
~ normhkVA=11000
~ emerghkVA=15000
~ sub=n
~ MaxTap=1.1
~ MinTap=0.9
~ NumTaps=32
~ subname=
~ %imag=0
~ ppm_antifloat=1
~ %Rs=[0.003, 0.006, 0.006, ]
~ bank=
~ XfmrCode=
~ XRConst=NO
~ X12=2.04
~ X13=2.04
~ X23=1.36
~ LeadLag=Lag
~ WdgCurrents=0.004806202, (30.001), 4.655526E-005, (29.976), 0.04806202, (-150), 
~ Core=shell
~ RdcOhms=7.344E-008
~ Seasons=1
~ Ratings=[1100,]
~ normamps=4583.3
~ emergamps=6250
~ faultrate=0.007
~ pctperm=100
~ repair=36
~ basefreq=60
~ enabled=true
~ like=

ZB:
9.00000000000001E-012 
3E-012 9E-012 
2.04E-009 
1.36E-009 2.04E-009 

ZB: (inverted)
7006408.8767 
-5968359.5237 7006408.8767 
-882293867.6994 
588179884.3442 -882293867.6994 

Y_OneVolt
2076098.7060 
-1038049.3530 7006408.8767 
-1038049.3530 -5968359.5237 7006408.8767 
-588227966.7104 
294113983.3552 -882293867.6994 
294113983.3552 588179884.3442 -882293867.6994 

Y_Terminal
0.3604 
-0.3604 0.3604 
-3.6043 3.6043 486.5562 
3.6043 -3.6043 -486.5562 486.5562 
-3.6043 3.6043 -414.4694 414.4694 486.5562 
3.6043 -3.6043 414.4694 -414.4694 -486.5562 486.5562 
-102.1229 
102.1229 -102.1229 
1021.2291 -1021.2291 -61270.4078 
-1021.2291 1021.2291 61270.4075 -61270.4078 
1021.2291 -1021.2291 40845.8253 -40845.8253 -61270.4078 
-1021.2291 1021.2291 -40845.8253 40845.8253 61270.4075 -61270.4078 

TermRef= 1 2 3 4 5 6 

New Transformer.xfmr_684_c_5
! ENABLED
! NPhases = 1
! Nconds = 2
! Nterms = 3
! Yorder = 6
! NodeRef = "58 0 59 0 0 60 "
! Terminal Status: [C C C C C C ]
! Terminal Bus Ref: [34 34 35 35 35 35 ]

! YPrim (G matrix)
!   0.3604338031 | -0.3604338031 |  -3.604338031 |   3.604338031 |  -3.604338031 |   3.604338031 |
!  -0.3604338031 |  0.3604338031 |   3.604338031 |  -3.604338031 |   3.604338031 |  -3.604338031 |
!   -3.604338031 |   3.604338031 |    486.556172 |   -486.556172 |  -414.4694114 |   414.4694114 |
!    3.604338031 |  -3.604338031 |   -486.556172 |    486.556172 |   414.4694114 |  -414.4694114 |
...